test/TEST190523/v_h20.csv
Bus, BasekV, Node1, Magnitude1, Angle1, pu1, Node2, Magnitude2, Angle2, pu2, Node3, Magnitude3, Angle3, pu3
"SOURCEBUS", 69, 1,    41811.4,   -0.3,    1.0496, 2,    41794.9, -120.3,    1.0491, 3,    41763.5,  119.7,    1.0484
"BUSMVMAI1", 12.8, 1,    7749.88,  -30.9,    1.0487, 2,    7753.31, -151.0,    1.0492, 3,    7732.87,   88.8,    1.0464
"BUSMVMAI136", 12.505, 1,    7749.86,  -30.9,    1.0734, 2,    7753.22, -151.0,    1.0739, 3,    7732.78,   88.8,     1.071
"BUSMVMAI3", 12.505, 1,    7730.21,  -31.5,    1.0707, 2,    7681.79, -151.6,     1.064, 3,    7667.27,   87.5,    1.0619
"BUSMVMAI2", 12.505, 1,    7730.16,  -31.5,    1.0707, 2,    7681.59, -151.6,    1.0639, 3,     7667.1,   87.5,    1.0619
"BUSMVMAI4", 12.505, 1,    7729.62,  -31.6,    1.0706, 2,    7679.58, -151.7,    1.0637, 3,     7665.3,   87.5,    1.0617
"BUSMVMAI46", 12.505, 1,    7730.24,  -31.5,    1.0707, 2,    7681.87, -151.6,     1.064, 3,    7667.35,   87.5,     1.062
"BUSMVMAI5", 12.505, 1,    7728.86,  -31.6,    1.0705, 2,    7677.47, -151.7,    1.0634, 3,    7663.37,   87.5,    1.0614
"BUSMVMAI862", 12.505, 1,    7729.61,  -31.6,    1.0706, 0, 0, 0, 0, 0, 0, 0, 0
"BUSMVMAI6", 12.505, 1,    7728.71,  -31.6,    1.0705, 2,    7677.08, -151.7,    1.0633, 3,    7663.03,   87.5,    1.0614
"BUSMVMAI859", 12.505, 3,    7663.34,   87.5,    1.0614, 0, 0, 0, 0, 0, 0, 0, 0
"BUSMVMAI860", 12.505, 3,    7663.37,   87.5,    1.0614, 0, 0, 0, 0, 0, 0, 0, 0
"BUSMVMAI7", 12.505, 1,    7727.75,  -31.6,    1.0703, 2,     7675.4, -151.7,    1.0631, 3,    7661.31,   87.4,    1.0611
"BUSMVMAI8", 12.505, 1,    7727.92,  -31.6,    1.0703, 2,    7672.67, -151.7,    1.0627, 3,    7660.17,   87.4,     1.061
"BUSMVMAI9", 12.505, 1,    7727.75,  -31.6,    1.0703, 2,     7675.4, -151.7,    1.0631, 3,    7661.31,   87.4,    1.0611
"BUSMVMAI10", 12.505, 1,    7727.11,  -31.6,    1.0702, 2,    7675.43, -151.7,    1.0631, 3,    7660.82,   87.4,    1.0611
"BUSMVMAI56", 12.505, 1,    7727.43,  -31.6,    1.0703, 2,    7675.41, -151.7,    1.0631, 3,    7661.06,   87.4,    1.0611
"BUSMVMAI861", 12.505, 3,    7663.26,   87.5,    1.0614, 0, 0, 0, 0, 0, 0, 0, 0
"BUSMVMAI12", 12.505, 1,    7728.06,  -31.6,    1.0704, 2,    7670.44, -151.7,    1.0624, 3,    7659.25,   87.4,    1.0608
"BUSMVMAI51", 12.505, 1,    7727.92,  -31.6,    1.0703, 2,    7672.67, -151.7,    1.0627, 3,    7660.17,   87.4,     1.061
"BUSMVMAI2171", 12.505, 1,    7727.92,  -31.6,    1.0703, 0, 0, 0, 0, 0, 0, 0, 0
"BUSMVMAI863", 12.505, 3,     7663.2,   87.5,    1.0614, 0, 0, 0, 0, 0, 0, 0, 0
"BUSMVMAI2165", 12.505, 3,    7661.31,   87.4,    1.0611, 0, 0, 0, 0, 0, 0, 0, 0
"BUSMVMAI694", 12.505, 1,    7727.75,  -31.6,    1.0703, 2,     7675.4, -151.7,    1.0631, 3,     7661.3,   87.4,    1.0611
"BUSMVMAI122", 12.505, 1,    7727.08,  -31.6,    1.0702, 2,    7675.43, -151.7,    1.0631, 3,    7660.79,   87.4,    1.0611
"BUSMVMAI11", 12.505, 1,    7728.06,  -31.6,    1.0704, 2,    7670.43, -151.7,    1.0624, 3,    7659.26,   87.4,    1.0608
"BUSMVMAI13", 12.505, 1,    7728.06,  -31.6,    1.0704, 2,    7670.41, -151.7,    1.0624, 3,    7659.26,   87.4,    1.0608
"BUSMVMAI18", 12.505, 1,    7728.12,  -31.6,    1.0704, 2,    7669.63, -151.7,    1.0623, 3,     7658.9,   87.4,    1.0608
"BUSMVMAI14", 12.505, 1,    7728.05,  -31.6,    1.0704, 2,    7670.36, -151.7,    1.0624, 3,    7659.28,   87.4,    1.0608
"BUSMVMAI15", 12.505, 1,    7728.05,  -31.6,    1.0704, 2,     7670.3, -151.7,    1.0624, 3,    7659.29,   87.4,    1.0608
"BUSMVMAI16", 12.505, 1,    7728.05,  -31.6,    1.0704, 2,     7670.3, -151.7,    1.0624, 3,    7659.28,   87.4,    1.0608
"BUSMVMAI2166", 12.505, 2,     7670.3, -151.7,    1.0624, 0, 0, 0, 0, 0, 0, 0, 0
"BUSMVMAI2172", 12.505, 1,    7729.61,  -31.6,    1.0706, 0, 0, 0, 0, 0, 0, 0, 0
"BUSMVMAI864", 12.505, 3,    7663.15,   87.5,    1.0614, 0, 0, 0, 0, 0, 0, 0, 0
"BUSMVMAI865", 12.505, 3,    7663.07,   87.5,    1.0614, 0, 0, 0, 0, 0, 0, 0, 0
"BUSMVMAI17", 12.505, 1,    7728.05,  -31.6,    1.0704, 2,     7670.3, -151.7,    1.0624, 3,    7659.28,   87.4,    1.0608
"BUSMVMAI695", 12.505, 1,    7728.05,  -31.6,    1.0704, 2,     7670.3, -151.7,    1.0624, 3,    7659.28,   87.4,    1.0608
"BUSMVMAI866", 12.505, 3,    7663.07,   87.5,    1.0614, 0, 0, 0, 0, 0, 0, 0, 0
"BUSMVMAI2176", 12.505, 3,    7663.07,   87.5,    1.0614, 0, 0, 0, 0, 0, 0, 0, 0
"BUSMVMAI2177", 12.505, 3,    7663.06,   87.5,    1.0614, 0, 0, 0, 0, 0, 0, 0, 0
"BUSMVMAI2178", 12.505, 3,    7663.02,   87.5,    1.0614, 0, 0, 0, 0, 0, 0, 0, 0
"BUSMVMAI19", 12.505, 1,    7728.24,  -31.6,    1.0704, 2,    7668.15, -151.7,    1.0621, 3,    7658.27,   87.4,    1.0607
"BUSMVMAI20", 12.505, 1,    7728.41,  -31.6,    1.0704, 2,    7666.06, -151.7,    1.0618, 3,    7657.38,   87.3,    1.0606
"BUSMVMAI53", 12.505, 1,    7728.24,  -31.6,    1.0704, 2,    7668.15, -151.7,    1.0621, 3,    7658.27,   87.4,    1.0607
"BUSMVMAI21", 12.505, 1,    7728.59,  -31.6,    1.0704, 2,    7663.87, -151.7,    1.0615, 3,    7656.44,   87.3,    1.0604
"BUSMVMAI22", 12.505, 1,     7728.8,  -31.6,    1.0705, 2,     7661.3, -151.8,    1.0611, 3,    7655.37,   87.3,    1.0603
"BUSMVMAI23", 12.505, 1,    7728.59,  -31.6,    1.0704, 2,    7663.87, -151.7,    1.0615, 3,    7656.44,   87.3,    1.0604
"BUSMVMAI25", 12.505, 1,    7729.01,  -31.6,    1.0705, 2,    7658.66, -151.8,    1.0608, 3,    7654.26,   87.2,    1.0601
"BUSMVMAI52", 12.505, 1,     7728.8,  -31.6,    1.0705, 2,     7661.3, -151.8,    1.0611, 3,    7655.37,   87.3,    1.0603
"BUSMVMAI54", 12.505, 1,     7728.8,  -31.6,    1.0705, 2,     7661.3, -151.8,    1.0611, 3,    7655.37,   87.3,    1.0603
"BUSMVMAI55", 12.505, 1,     7728.8,  -31.6,    1.0705, 2,     7661.3, -151.8,    1.0611, 3,    7655.37,   87.3,    1.0603
"BUSMVMAI696", 12.505, 1,    7728.59,  -31.6,    1.0704, 2,    7663.88, -151.7,    1.0615, 3,    7656.44,   87.3,    1.0604
"BUSMVMAI24", 12.505, 1,    7729.03,  -31.6,    1.0705, 2,     7658.4, -151.8,    1.0607, 3,    7654.16,   87.2,    1.0601
"BUSMVMAI26", 12.505, 1,    7729.24,  -31.6,    1.0705, 2,    7655.76, -151.8,    1.0604, 3,    7653.06,   87.2,      1.06
"BUSMVMAI49", 12.505, 1,    7729.01,  -31.6,    1.0705, 2,    7658.66, -151.8,    1.0608, 3,    7654.26,   87.2,    1.0601
"BUSMVMAI50", 12.505, 1,    7729.01,  -31.6,    1.0705, 2,    7658.66, -151.8,    1.0608, 3,    7654.26,   87.2,    1.0601
"BUSMVMAI27", 12.505, 1,    7729.22,  -31.6,    1.0705, 2,    7655.77, -151.8,    1.0604, 3,    7653.05,   87.2,      1.06
"BUSMVMAI28", 12.505, 1,    7729.41,  -31.6,    1.0706, 2,    7653.73, -151.8,    1.0601, 3,    7652.24,   87.2,    1.0599
"BUSMVMAI29", 12.505, 1,     7729.2,  -31.6,    1.0705, 2,    7655.78, -151.8,    1.0604, 3,    7653.04,   87.2,      1.06
"BUSMVMAI31", 12.505, 1,     7729.6,  -31.6,    1.0706, 2,    7651.37, -151.8,    1.0597, 3,    7651.28,   87.1,    1.0597
"BUSMVMAI30", 12.505, 1,    7729.17,  -31.6,    1.0705, 2,     7655.8, -151.8,    1.0604, 3,    7653.03,   87.2,      1.06
"BUSMVMAI34", 12.505, 1,    7729.15,  -31.6,    1.0705, 2,    7655.81, -151.8,    1.0604, 3,    7653.02,   87.2,      1.06
"BUSMVMAI867", 12.505, 1,    7729.55,  -31.6,    1.0706, 0, 0, 0, 0, 0, 0, 0, 0
"BUSMVMAI43", 12.505, 1,    7729.61,  -31.6,    1.0706, 2,    7651.32, -151.8,    1.0597, 3,    7651.26,   87.1,    1.0597
"BUSMVMAI871", 12.505, 2,    7651.37, -151.8,    1.0597, 0, 0, 0, 0, 0, 0, 0, 0
"BUSMVMAI33", 12.505, 1,    7729.68,  -31.6,    1.0706, 2,    7650.64, -151.8,    1.0596, 3,       7651,   87.1,    1.0597
"BUSMVMAI32", 12.505, 1,    7729.87,  -31.6,    1.0706, 2,    7648.62, -151.8,    1.0594, 3,    7650.21,   87.1,    1.0596
"BUSMVMAI37", 12.505, 1,    7730.11,  -31.6,    1.0707, 2,    7645.85, -151.9,     1.059, 3,    7649.16,   87.1,    1.0594
"BUSMVMAI44", 12.505, 1,    7729.61,  -31.6,    1.0706, 2,    7651.26, -151.8,    1.0597, 3,    7651.24,   87.1,    1.0597
"BUSMVMAI35", 12.505, 1,    7729.15,  -31.6,    1.0705, 2,    7655.81, -151.8,    1.0604, 3,    7653.01,   87.2,      1.06
"BUSMVMAI36", 12.505, 1,    7729.15,  -31.6,    1.0705, 2,    7655.82, -151.8,    1.0604, 3,    7653.01,   87.2,      1.06
"BUSMVMAI869", 12.505, 1,    7729.55,  -31.6,    1.0706, 0, 0, 0, 0, 0, 0, 0, 0
"BUSMVMAI38", 12.505, 1,     7730.3,  -31.6,    1.0707, 2,    7643.65, -151.9,    1.0587, 3,    7648.35,   87.1,    1.0593
"BUSMVMAI2181", 12.505, 1,     7730.1,  -31.6,    1.0707, 0, 0, 0, 0, 0, 0, 0, 0
"BUSMVMAI868", 12.505, 1,    7729.45,  -31.6,    1.0706, 0, 0, 0, 0, 0, 0, 0, 0
"BUSMVMAI870", 12.505, 1,    7729.35,  -31.6,    1.0705, 0, 0, 0, 0, 0, 0, 0, 0
"BUSMVMAI39", 12.505, 1,    7730.33,  -31.6,    1.0707, 2,    7643.64, -151.9,    1.0587, 3,    7648.29,   87.1,    1.0593
"BUSMVMAI40", 12.505, 1,    7730.45,  -31.6,    1.0707, 2,     7641.5, -151.9,    1.0584, 3,    7647.58,   87.0,    1.0592
"BUSMVMAI697", 12.505, 1,    7730.36,  -31.6,    1.0707, 2,    7643.65, -151.9,    1.0587, 3,    7648.14,   87.1,    1.0593
"BUSMVMAI41", 12.505, 1,    7730.62,  -31.6,    1.0707, 2,    7639.02, -151.9,     1.058, 3,    7646.68,   87.0,    1.0591
"BUSMVMAI42", 12.505, 1,    7730.66,  -31.6,    1.0707, 2,       7639, -151.9,     1.058, 3,    7646.64,   87.0,    1.0591
"BUSMVMAI48", 12.505, 1,    7730.73,  -31.6,    1.0707, 2,    7636.97, -151.9,    1.0578, 3,    7645.97,   87.0,     1.059
"BUSMVMAI303", 12.505, 1,    7730.68,  -31.6,    1.0707, 2,       7638, -151.9,    1.0579, 3,    7646.33,   87.0,     1.059
"BUSMVMAI45", 12.505, 1,    7730.67,  -31.6,    1.0707, 2,    7638.99, -151.9,     1.058, 3,    7646.62,   87.0,    1.0591
"BUSMVMAI701", 12.505, 1,    7730.67,  -31.6,    1.0707, 2,       7639, -151.9,     1.058, 3,    7646.59,   87.0,    1.0591
"BUSMVMAI47", 12.505, 1,    7730.48,  -31.5,    1.0707, 2,    7682.76, -151.6,    1.0641, 3,    7668.14,   87.6,    1.0621
"BUSMVMAI179", 12.505, 1,    7730.36,  -31.5,    1.0707, 2,    7682.32, -151.6,     1.064, 3,    7667.75,   87.6,     1.062
"BUSMVMAI160", 12.505, 1,    7731.05,  -31.5,    1.0708, 2,    7684.88, -151.6,    1.0644, 3,    7670.05,   87.6,    1.0623
"BUSMVMAI1103", 12.505, 1,    7730.66,  -31.6,    1.0707, 0, 0, 0, 0, 0, 0, 0, 0
"BUSMVMAI259", 12.505, 1,    7730.83,  -31.6,    1.0708, 2,    7635.92, -151.9,    1.0576, 3,    7645.66,   87.0,     1.059
"BUSMVMAI304", 12.505, 1,    7730.73,  -31.6,    1.0707, 2,    7636.97, -151.9,    1.0578, 3,    7645.97,   87.0,     1.059
"BUSMVMAI702", 12.505, 1,    7729.01,  -31.6,    1.0705, 2,    7658.66, -151.8,    1.0608, 3,    7654.26,   87.2,    1.0601
"BUSMVMAI58", 12.505, 1,    7726.67,  -31.6,    1.0702, 2,    7675.45, -151.7,    1.0631, 3,    7660.47,   87.4,     1.061
"BUSMVMAI57", 12.505, 1,    7725.16,  -31.6,      1.07, 2,    7675.52, -151.7,    1.0631, 3,    7659.31,   87.4,    1.0608
"BUSMVMAI60", 12.505, 1,    7724.53,  -31.6,    1.0699, 2,    7675.55, -151.7,    1.0631, 3,    7658.84,   87.4,    1.0608
"BUSMVMAI703", 12.505, 1,    7725.16,  -31.6,      1.07, 2,    7675.52, -151.7,    1.0631, 3,     7659.3,   87.4,    1.0608
"BUSMVMAI123", 12.505, 1,    7727.05,  -31.6,    1.0702, 2,    7675.43, -151.7,    1.0631, 3,    7660.76,   87.4,     1.061
"BUSMVMAI59", 12.505, 1,    7723.63,  -31.6,    1.0698, 2,    7675.63, -151.7,    1.0631, 3,    7658.32,   87.4,    1.0607
"BUSMVMAI61", 12.505, 1,    7722.13,  -31.6,    1.0695, 2,    7675.77, -151.7,    1.0631, 3,    7657.45,   87.4,    1.0606
"BUSMVMAI63", 12.505, 1,    7724.57,  -31.6,    1.0699, 2,    7675.52, -151.7,    1.0631, 3,    7658.77,   87.4,    1.0608
"BUSMVMAI874", 12.505, 3,    7658.84,   87.4,    1.0608, 0, 0, 0, 0, 0, 0, 0, 0
"BUSMVMAI62", 12.505, 1,    7720.67,  -31.6,    1.0693, 2,    7675.82, -151.7,    1.0631, 3,    7656.59,   87.4,    1.0605
"BUSMVMAI64", 12.505, 1,    7719.08,  -31.7,    1.0691, 2,    7675.95, -151.7,    1.0632, 3,    7655.93,   87.4,    1.0604
"BUSMVMAI942", 12.505, 3,    7656.58,   87.4,    1.0605, 0, 0, 0, 0, 0, 0, 0, 0
"BUSMVMAI873", 12.505, 3,    7656.58,   87.4,    1.0605, 0, 0, 0, 0, 0, 0, 0, 0
"BUSMVMAI872", 12.505, 3,    7656.26,   87.4,    1.0604, 0, 0, 0, 0, 0, 0, 0, 0
"BUSMVMAI880", 12.505, 3,    7656.25,   87.4,    1.0604, 0, 0, 0, 0, 0, 0, 0, 0
"BUSMVMAI945", 12.505, 3,    7658.76,   87.4,    1.0608, 0, 0, 0, 0, 0, 0, 0, 0
"BUSMVMAI65", 12.505, 1,     7717.4,  -31.7,    1.0689, 2,    7676.02, -151.7,    1.0632, 3,    7655.21,   87.4,    1.0603
"BUSMVMAI66", 12.505, 1,     7715.7,  -31.7,    1.0687, 2,     7676.1, -151.7,    1.0632, 3,    7654.49,   87.4,    1.0602
"BUSMVMAI67", 12.505, 1,    7713.87,  -31.7,    1.0684, 2,    7676.18, -151.7,    1.0632, 3,    7653.71,   87.4,    1.0601
"BUSMVMAI878", 12.505, 1,    7713.78,  -31.7,    1.0684, 0, 0, 0, 0, 0, 0, 0, 0
"BUSMVMAI68", 12.505, 1,    7712.51,  -31.7,    1.0682, 2,     7676.2, -151.7,    1.0632, 3,    7653.13,   87.4,      1.06
"BUSMVMAI706", 12.505, 1,    7713.87,  -31.7,    1.0684, 2,    7676.18, -151.7,    1.0632, 3,     7653.7,   87.4,    1.0601
"BUSMVMAI876", 12.505, 3,    7658.74,   87.4,    1.0608, 0, 0, 0, 0, 0, 0, 0, 0
"BUSMVMAI875", 12.505, 3,    7658.49,   87.4,    1.0607, 0, 0, 0, 0, 0, 0, 0, 0
"BUSMVMAI877", 12.505, 3,    7658.41,   87.4,    1.0607, 0, 0, 0, 0, 0, 0, 0, 0
"BUSMVMAI883", 12.505, 3,    7658.21,   87.4,    1.0607, 0, 0, 0, 0, 0, 0, 0, 0
"BUSMVMAI884", 12.505, 3,     7658.4,   87.4,    1.0607, 0, 0, 0, 0, 0, 0, 0, 0
"BUSMVMAI886", 12.505, 3,    7658.39,   87.4,    1.0607, 0, 0, 0, 0, 0, 0, 0, 0
"BUSMVMAI885", 12.505, 1,    7713.65,  -31.7,    1.0684, 0, 0, 0, 0, 0, 0, 0, 0
"BUSMVMAI879", 12.505, 3,    7655.81,   87.4,    1.0604, 0, 0, 0, 0, 0, 0, 0, 0
"BUSMVMAI881", 12.505, 3,    7655.76,   87.4,    1.0604, 0, 0, 0, 0, 0, 0, 0, 0
"BUSMVMAI888", 12.505, 3,    7655.75,   87.4,    1.0604, 0, 0, 0, 0, 0, 0, 0, 0
"BUSMVMAI882", 12.505, 3,    7655.71,   87.4,    1.0603, 0, 0, 0, 0, 0, 0, 0, 0
"BUSMVMAI944", 12.505, 3,    7655.71,   87.4,    1.0603, 0, 0, 0, 0, 0, 0, 0, 0
"BUSMVMAI889", 12.505, 3,    7658.03,   87.4,    1.0607, 0, 0, 0, 0, 0, 0, 0, 0
"BUSMVMAI2183", 12.505, 3,    7658.39,   87.4,    1.0607, 0, 0, 0, 0, 0, 0, 0, 0
"BUSMVMAI2184", 12.505, 3,    7658.39,   87.4,    1.0607, 0, 0, 0, 0, 0, 0, 0, 0
"BUSMVMAI71", 12.505, 1,     7711.2,  -31.7,     1.068, 2,    7676.19, -151.7,    1.0632, 3,    7652.57,   87.4,    1.0599
"BUSMVMAI2182", 12.505, 1,    7713.64,  -31.7,    1.0684, 0, 0, 0, 0, 0, 0, 0, 0
"BUSMVMAI2185", 12.505, 1,    7713.64,  -31.7,    1.0684, 0, 0, 0, 0, 0, 0, 0, 0
"BUSMVMAI2186", 12.505, 1,    7713.57,  -31.7,    1.0684, 0, 0, 0, 0, 0, 0, 0, 0
"BUSMVMAI887", 12.505, 3,    7658.36,   87.4,    1.0607, 0, 0, 0, 0, 0, 0, 0, 0
"BUSMVMAI892", 12.505, 3,    7658.34,   87.4,    1.0607, 0, 0, 0, 0, 0, 0, 0, 0
"BUSMVMAI897", 12.505, 3,    7655.68,   87.4,    1.0603, 0, 0, 0, 0, 0, 0, 0, 0
"BUSMVMAI890", 12.505, 3,    7657.88,   87.4,    1.0606, 0, 0, 0, 0, 0, 0, 0, 0
"BUSMVMAI891", 12.505, 3,    7657.79,   87.4,    1.0606, 0, 0, 0, 0, 0, 0, 0, 0
"BUSMVMAI896", 12.505, 3,    7657.75,   87.4,    1.0606, 0, 0, 0, 0, 0, 0, 0, 0
"BUSMVMAI893", 12.505, 3,    7658.31,   87.4,    1.0607, 0, 0, 0, 0, 0, 0, 0, 0
"BUSMVMAI894", 12.505, 3,    7658.29,   87.4,    1.0607, 0, 0, 0, 0, 0, 0, 0, 0
"BUSMVMAI895", 12.505, 3,    7658.29,   87.4,    1.0607, 0, 0, 0, 0, 0, 0, 0, 0
"BUSMVMAI898", 12.505, 3,    7658.28,   87.4,    1.0607, 0, 0, 0, 0, 0, 0, 0, 0
"BUSMVMAI70", 12.505, 1,    7713.87,  -31.7,    1.0684, 2,    7676.19, -151.7,    1.0632, 3,    7653.66,   87.4,    1.0601
"BUSMVMAI69", 12.505, 1,    7713.88,  -31.7,    1.0684, 2,    7676.18, -151.7,    1.0632, 3,    7653.66,   87.4,    1.0601
"BUSMVMAI708", 12.505, 1,    7713.87,  -31.7,    1.0684, 2,    7676.18, -151.7,    1.0632, 3,    7653.67,   87.4,    1.0601
"BUSMVMAI72", 12.505, 1,    7709.47,  -31.7,    1.0678, 2,    7676.18, -151.7,    1.0632, 3,    7651.83,   87.4,    1.0598
"BUSMVMAI73", 12.505, 1,    7707.82,  -31.7,    1.0676, 2,     7676.2, -151.7,    1.0632, 3,    7651.22,   87.5,    1.0597
"BUSMVMAI134", 12.505, 1,    7709.47,  -31.7,    1.0678, 2,    7676.18, -151.7,    1.0632, 3,    7651.83,   87.4,    1.0598
"BUSMVMAI900", 12.505, 3,    7655.61,   87.4,    1.0603, 0, 0, 0, 0, 0, 0, 0, 0
"BUSMVMAI904", 12.505, 3,    7658.28,   87.4,    1.0607, 0, 0, 0, 0, 0, 0, 0, 0
"BUSMVMAI75", 12.505, 1,    7707.02,  -31.7,    1.0675, 2,    7676.26, -151.7,    1.0632, 3,    7650.91,   87.5,    1.0597
"BUSMVMAI718", 12.505, 1,    7707.82,  -31.7,    1.0676, 2,    7676.19, -151.7,    1.0632, 3,    7651.22,   87.5,    1.0597
"BUSMVMAI899", 12.505, 3,    7655.61,   87.4,    1.0603, 0, 0, 0, 0, 0, 0, 0, 0
"BUSMVMAI902", 12.505, 3,    7655.58,   87.4,    1.0603, 0, 0, 0, 0, 0, 0, 0, 0
"BUSMVMAI901", 12.505, 3,    7655.55,   87.4,    1.0603, 0, 0, 0, 0, 0, 0, 0, 0
"BUSMVMAI903", 12.505, 3,     7655.5,   87.4,    1.0603, 0, 0, 0, 0, 0, 0, 0, 0
"BUSMVMAI905", 12.505, 3,    7655.45,   87.4,    1.0603, 0, 0, 0, 0, 0, 0, 0, 0
"BUSMVMAI907", 12.505, 3,    7655.49,   87.4,    1.0603, 0, 0, 0, 0, 0, 0, 0, 0
"BUSMVMAI906", 12.505, 3,    7655.44,   87.4,    1.0603, 0, 0, 0, 0, 0, 0, 0, 0
"BUSMVMAI946", 12.505, 3,    7655.44,   87.4,    1.0603, 0, 0, 0, 0, 0, 0, 0, 0
"BUSMVMAI74", 12.505, 1,    7707.02,  -31.7,    1.0675, 2,    7676.26, -151.7,    1.0632, 3,    7650.91,   87.5,    1.0597
"BUSMVMAI76", 12.505, 1,    7706.87,  -31.7,    1.0674, 2,    7676.37, -151.7,    1.0632, 3,    7650.84,   87.5,    1.0597
"BUSMVMAI77", 12.505, 1,    7706.55,  -31.7,    1.0674, 2,    7676.23, -151.7,    1.0632, 3,    7650.74,   87.5,    1.0597
"BUSMVMAI79", 12.505, 1,    7706.86,  -31.7,    1.0674, 2,    7676.38, -151.7,    1.0632, 3,    7650.83,   87.5,    1.0597
"BUSMVMAI81", 12.505, 1,    7706.52,  -31.7,    1.0674, 2,    7676.12, -151.7,    1.0632, 3,    7650.79,   87.5,    1.0597
"BUSMVMAI91", 12.505, 1,    7705.37,  -31.8,    1.0672, 2,    7676.26, -151.7,    1.0632, 3,    7650.26,   87.5,    1.0596
"BUSMVMAI78", 12.505, 1,    7706.59,  -31.7,    1.0674, 2,    7676.57, -151.7,    1.0632, 3,    7650.69,   87.5,    1.0597
"BUSMVMAI80", 12.505, 1,    7706.33,  -31.7,    1.0674, 2,    7676.77, -151.7,    1.0633, 3,    7650.54,   87.5,    1.0596
"BUSMVMAI908", 12.505, 1,    7706.18,  -31.8,    1.0673, 0, 0, 0, 0, 0, 0, 0, 0
"BUSMVMAI89", 12.505, 1,    7706.24,  -31.8,    1.0673, 2,    7676.83, -151.7,    1.0633, 3,    7650.48,   87.5,    1.0596
"BUSMVMAI949", 12.505, 3,    7655.49,   87.4,    1.0603, 0, 0, 0, 0, 0, 0, 0, 0
"BUSMVMAI82", 12.505, 1,     7706.5,  -31.7,    1.0674, 2,    7676.03, -151.7,    1.0632, 3,    7650.82,   87.5,    1.0597
"BUSMVMAI83", 12.505, 1,     7706.5,  -31.7,    1.0674, 2,    7676.01, -151.7,    1.0632, 3,    7650.81,   87.5,    1.0597
"BUSMVMAI86", 12.505, 1,    7706.51,  -31.7,    1.0674, 2,    7675.99, -151.7,    1.0632, 3,     7650.8,   87.5,    1.0597
"BUSMVMAI85", 12.505, 1,    7707.79,  -31.7,    1.0676, 2,    7676.09, -151.7,    1.0632, 3,    7651.19,   87.4,    1.0597
"BUSMVMAI84", 12.505, 1,    7707.72,  -31.7,    1.0676, 2,    7675.98, -151.7,    1.0632, 3,    7651.19,   87.4,    1.0597
"BUSMVMAI93", 12.505, 1,    7707.67,  -31.7,    1.0675, 2,    7675.92, -151.7,    1.0631, 3,    7651.18,   87.4,    1.0597
"BUSMVMAI2198", 12.505, 2,    7675.98, -151.7,    1.0632, 0, 0, 0, 0, 0, 0, 0, 0
"BUSMVMAI709", 12.505, 1,    7707.82,  -31.7,    1.0676, 2,    7676.19, -151.7,    1.0632, 3,    7651.22,   87.5,    1.0597
"BUSMVMAI88", 12.505, 1,    7706.52,  -31.7,    1.0674, 2,    7675.97, -151.7,    1.0632, 3,    7650.79,   87.5,    1.0597
"BUSMVMAI87", 12.505, 1,    7706.52,  -31.7,    1.0674, 2,    7675.94, -151.7,    1.0632, 3,    7650.78,   87.5,    1.0597
"BUSMVMAI99", 12.505, 1,    7706.52,  -31.7,    1.0674, 2,    7675.93, -151.7,    1.0631, 3,    7650.79,   87.5,    1.0597
"BUSMVMAI722", 12.505, 1,    7706.52,  -31.7,    1.0674, 2,    7675.94, -151.7,    1.0632, 3,    7650.78,   87.5,    1.0597
"BUSMVMAI909", 12.505, 1,    7706.03,  -31.8,    1.0673, 0, 0, 0, 0, 0, 0, 0, 0
"BUSMVMAI90", 12.505, 1,     7706.2,  -31.8,    1.0673, 2,    7676.87, -151.7,    1.0633, 3,    7650.42,   87.5,    1.0596
"BUSMVMAI102", 12.505, 1,    7706.15,  -31.8,    1.0673, 2,    7676.91, -151.7,    1.0633, 3,    7650.35,   87.5,    1.0596
"BUSMVMAI92", 12.505, 1,    7704.34,  -31.8,    1.0671, 2,    7676.29, -151.7,    1.0632, 3,    7649.85,   87.5,    1.0595
"BUSMVMAI132", 12.505, 1,    7705.37,  -31.8,    1.0672, 2,    7676.26, -151.7,    1.0632, 3,    7650.26,   87.5,    1.0596
"BUSMVMAI98", 12.505, 1,    7704.34,  -31.8,    1.0671, 2,    7676.29, -151.7,    1.0632, 3,    7649.84,   87.5,    1.0595
"BUSMVMAI100", 12.505, 1,    7703.05,  -31.8,    1.0669, 2,    7676.44, -151.7,    1.0632, 3,    7649.25,   87.5,    1.0595
"BUSMVMAI723", 12.505, 1,    7704.34,  -31.8,    1.0671, 2,    7676.28, -151.7,    1.0632, 3,    7649.85,   87.5,    1.0595
"BUSMVMAI96", 12.505, 1,    7707.64,  -31.7,    1.0675, 2,    7675.86, -151.7,    1.0631, 3,    7651.18,   87.4,    1.0597
"BUSMVMAI916", 12.505, 1,    7707.67,  -31.7,    1.0675, 0, 0, 0, 0, 0, 0, 0, 0
"BUSMVMAI95", 12.505, 1,    7704.35,  -31.8,    1.0671, 2,     7676.2, -151.7,    1.0632, 3,    7649.86,   87.5,    1.0595
"BUSMVMAI94", 12.505, 1,    7704.31,  -31.8,    1.0671, 2,    7676.11, -151.7,    1.0632, 3,     7649.9,   87.5,    1.0595
"BUSMVMAI112", 12.505, 1,    7704.31,  -31.8,    1.0671, 2,    7676.11, -151.7,    1.0632, 3,    7649.89,   87.5,    1.0595
"BUSMVMAI126", 12.505, 1,    7704.35,  -31.8,    1.0671, 2,     7676.2, -151.7,    1.0632, 3,    7649.86,   87.5,    1.0595
"BUSMVMAI97", 12.505, 1,    7707.58,  -31.7,    1.0675, 2,    7675.77, -151.7,    1.0631, 3,    7651.18,   87.4,    1.0597
"BUSMVMAI711", 12.505, 1,    7707.64,  -31.7,    1.0675, 2,    7675.86, -151.7,    1.0631, 3,    7651.18,   87.4,    1.0597
"BUSMVMAI915", 12.505, 1,    7707.58,  -31.7,    1.0675, 0, 0, 0, 0, 0, 0, 0, 0
...
"BUSLVMAI1", 0.20785, 1,    127.326,   87.5,     1.061, 2,    127.342,  -92.5,    1.0612, 0, 0, 0, 0
"BUSLVMAI2", 0.20785, 1,    127.142,   87.3,    1.0595, 2,    127.155,  -92.7,    1.0596, 0, 0, 0, 0
"BUSLVMAI3", 0.20785, 1,    127.293,   87.5,    1.0608, 2,    127.309,  -92.6,    1.0609, 0, 0, 0, 0
"BUSLVMAI4", 0.20785, 1,    127.839,  -31.9,    1.0653, 2,    127.957,  148.1,    1.0663, 0, 0, 0, 0
"BUSLVMAI5", 0.20785, 1,    126.724, -152.0,     1.056, 2,    126.793,   28.0,    1.0566, 0, 0, 0, 0
"BUSLVMAI6", 0.20785, 1,    127.158,   87.2,    1.0596, 2,    127.173,  -92.8,    1.0598, 0, 0, 0, 0
"BUSLVMAI7", 0.20785, 1,    127.331,   87.5,    1.0611, 2,    127.345,  -92.5,    1.0612, 0, 0, 0, 0
"BUSLVMAI8", 0.20785, 1,    126.671,   87.3,    1.0556, 2,    126.695,  -92.8,    1.0558, 0, 0, 0, 0
"BUSLVMAI9", 0.20785, 1,    126.661,   86.8,    1.0555, 2,    126.674,  -93.2,    1.0556, 0, 0, 0, 0
"BUSLVMAI10", 0.20785, 1,    126.735,   86.9,    1.0561, 2,    126.748,  -93.1,    1.0562, 0, 0, 0, 0
"BUSLVMAI11", 0.20785, 1,    127.427, -151.7,    1.0619, 2,     127.44,   28.3,     1.062, 0, 0, 0, 0
"BUSLVMAI12", 0.20785, 1,    127.365, -151.7,    1.0614, 2,    127.381,   28.2,    1.0615, 0, 0, 0, 0
"BUSLVMAI13", 0.20785, 1,    128.404,  -31.6,      1.07, 2,     128.42,  148.4,    1.0702, 0, 0, 0, 0
"BUSLVMAI14", 0.20785, 1,    128.385,  -31.7,    1.0699, 2,    128.401,  148.3,      1.07, 0, 0, 0, 0
"BUSLVMAI15", 0.20785, 1,     128.35,  -31.6,    1.0696, 2,    128.363,  148.4,    1.0697, 0, 0, 0, 0
"BUSLVMAI16", 0.20785, 1,    127.297,   87.5,    1.0608, 2,    127.315,  -92.5,     1.061, 0, 0, 0, 0
"BUSLVMAI17", 0.20785, 1,    125.939,   86.8,    1.0495, 2,     125.99,  -93.3,    1.0499, 0, 0, 0, 0
"BUSLVMAI18", 0.20785, 1,    127.215,   87.3,    1.0601, 2,     127.23,  -92.7,    1.0603, 0, 0, 0, 0
"BUSLVMAI19", 0.20785, 1,    127.213,   87.4,    1.0601, 2,    127.226,  -92.6,    1.0602, 0, 0, 0, 0
"BUSLVMAI20", 0.20785, 1,    126.874, -151.8,    1.0573, 2,    126.914,   28.2,    1.0576, 0, 0, 0, 0
"BUSLVMAI21", 0.20785, 1,    127.327,   87.5,    1.0611, 2,    127.342,  -92.5,    1.0612, 0, 0, 0, 0
"BUSLVMAI22", 0.20785, 1,    128.156,  -31.7,     1.068, 2,    128.268,  148.3,    1.0689, 0, 0, 0, 0
"BUSLVMAI23", 0.20785, 1,    127.264,   87.4,    1.0605, 2,    127.279,  -92.6,    1.0607, 0, 0, 0, 0
"BUSLVMAI24", 0.20785, 1,    127.287,   87.5,    1.0607, 2,    127.303,  -92.5,    1.0609, 0, 0, 0, 0
"BUSLVMAI25", 0.20785, 1,    127.196,   87.4,      1.06, 2,    127.212,  -92.6,    1.0601, 0, 0, 0, 0
"BUSLVMAI26", 0.20785, 1,     127.34, -151.8,    1.0612, 2,    127.356,   28.2,    1.0613, 0, 0, 0, 0
"BUSLVMAI27", 0.20785, 1,    127.449, -151.7,    1.0621, 2,    127.465,   28.3,    1.0622, 0, 0, 0, 0
"BUSLVMAI28", 0.20785, 1,    127.215,   87.3,    1.0601, 2,     127.23,  -92.7,    1.0603, 0, 0, 0, 0
"BUSLVMAI29", 0.20785, 1,    126.617,   86.8,    1.0551, 2,    126.633,  -93.2,    1.0553, 0, 0, 0, 0
"BUSLVMAI30", 0.20785, 1,    127.136, -151.8,    1.0595, 2,    127.151,   28.2,    1.0596, 0, 0, 0, 0
"BUSLVMAI31", 0.20785, 1,    127.295,   87.5,    1.0608, 2,    127.311,  -92.5,    1.0609, 0, 0, 0, 0
"BUSLVMAI32", 0.20785, 1,    128.096,  -31.7,    1.0675, 2,    128.109,  148.3,    1.0676, 0, 0, 0, 0
"BUSLVMAI33", 0.20785, 1,    127.186,   87.2,    1.0599, 2,    127.199,  -92.8,      1.06, 0, 0, 0, 0
"BUSLVMAI34", 0.20785, 1,    125.652,   87.0,    1.0471, 2,    125.771,  -92.9,    1.0481, 0, 0, 0, 0
"BUSLVMAI35", 0.20785, 1,    127.207,   87.4,    1.0601, 2,    127.221,  -92.6,    1.0602, 0, 0, 0, 0
"BUSLVMAI36", 0.20785, 1,    127.205,   87.4,      1.06, 2,    127.219,  -92.6,    1.0602, 0, 0, 0, 0
"BUSLVMAI37", 0.20785, 1,    127.203,   87.4,      1.06, 2,    127.219,  -92.6,    1.0602, 0, 0, 0, 0
"BUSLVMAI38", 0.20785, 1,    123.388, -152.7,    1.0282, 2,    123.406,   27.3,    1.0284, 0, 0, 0, 0
"BUSLVMAI39", 0.20785, 1,    127.206, -151.9,      1.06, 2,    127.219,   28.1,    1.0602, 0, 0, 0, 0
"BUSLVMAI40", 0.20785, 1,    126.779,   87.2,    1.0565, 2,    126.832,  -92.8,    1.0569, 0, 0, 0, 0
"BUSLVMAI41", 0.20785, 1,    128.046,  -31.7,    1.0671, 2,    128.062,  148.3,    1.0672, 0, 0, 0, 0
"BUSLVMAI42", 0.20785, 1,    128.109,  -31.7,    1.0676, 2,    128.125,  148.3,    1.0677, 0, 0, 0, 0
"BUSLVMAI43", 0.20785, 1,    128.084,  -31.7,    1.0674, 2,      128.1,  148.3,    1.0675, 0, 0, 0, 0
"BUSLVMAI44", 0.20785, 1,    126.977,   87.4,    1.0581, 2,    127.016,  -92.6,    1.0585, 0, 0, 0, 0
"BUSLVMAI45", 0.20785, 1,    126.991,   87.4,    1.0583, 2,    127.005,  -92.6,    1.0584, 0, 0, 0, 0
"BUSLVMAI46", 0.20785, 1,    127.127,   87.5,    1.0594, 2,    127.143,  -92.5,    1.0595, 0, 0, 0, 0
"BUSLVMAI47", 0.20785, 1,    127.209,   87.4,    1.0601, 2,    127.223,  -92.6,    1.0602, 0, 0, 0, 0
"BUSLVMAI48", 0.20785, 1,    126.697,   87.2,    1.0558, 2,     126.72,  -92.8,     1.056, 0, 0, 0, 0
"BUSLVMAI49", 0.20785, 1,    128.066,  -31.7,    1.0672, 2,    128.081,  148.3,    1.0673, 0, 0, 0, 0
"BUSLVMAI50", 0.20785, 1,    125.922, -152.2,    1.0493, 2,    126.058,   27.8,    1.0505, 0, 0, 0, 0
"BUSLVMAI51", 0.20785, 1,    127.196,  -32.0,      1.06, 2,    127.212,  148.0,    1.0601, 0, 0, 0, 0
"BUSLVMAI52", 0.20785, 1,    127.219,   87.4,    1.0602, 2,    127.233,  -92.6,    1.0603, 0, 0, 0, 0
"BUSLVMAI53", 0.20785, 1,    127.201,   87.4,      1.06, 2,    127.216,  -92.6,    1.0601, 0, 0, 0, 0
"BUSLVMAI54", 0.20785, 1,    126.505,   87.2,    1.0542, 2,    126.521,  -92.8,    1.0543, 0, 0, 0, 0
"BUSLVMAI55", 0.20785, 1,    128.097,  -31.7,    1.0675, 2,    128.113,  148.3,    1.0676, 0, 0, 0, 0
"BUSLVMAI56", 0.20785, 1,     126.85,   87.3,    1.0571, 2,    126.863,  -92.7,    1.0572, 0, 0, 0, 0
"BUSLVMAI57", 0.20785, 1,    127.105,   87.5,    1.0592, 2,     127.12,  -92.5,    1.0593, 0, 0, 0, 0
"BUSLVMAI58", 0.20785, 1,    127.218,   87.4,    1.0601, 2,    127.232,  -92.6,    1.0603, 0, 0, 0, 0
"BUSLVMAI59", 0.20785, 1,    128.066,  -31.7,    1.0672, 2,    128.081,  148.3,    1.0673, 0, 0, 0, 0
"BUSLVMAI60", 0.20785, 1,    128.009,  -31.8,    1.0667, 2,    128.022,  148.2,    1.0668, 0, 0, 0, 0
"BUSLVMAI61", 0.20785, 1,    126.722,  -32.3,     1.056, 2,     126.74,  147.7,    1.0562, 0, 0, 0, 0
"BUSLVMAI62", 0.20785, 1,    127.369, -151.8,    1.0614, 2,    127.383,   28.2,    1.0615, 0, 0, 0, 0
"BUSLVMAI63", 0.20785, 1,    127.726,  -31.9,    1.0644, 2,     127.75,  148.1,    1.0646, 0, 0, 0, 0
"BUSLVMAI64", 0.20785, 1,    127.392, -151.8,    1.0616, 2,    127.405,   28.2,    1.0617, 0, 0, 0, 0
"BUSLVMAI65", 0.20785, 1,    128.043,  -31.7,     1.067, 2,    128.057,  148.2,    1.0671, 0, 0, 0, 0
"BUSLVMAI66", 0.20785, 1,    127.206,   87.4,      1.06, 2,     127.22,  -92.6,    1.0602, 0, 0, 0, 0
"BUSLVMAI67", 0.20785, 1,    127.526,  -31.9,    1.0627, 2,    127.542,  148.1,    1.0629, 0, 0, 0, 0
"BUSLVMAI68", 0.20785, 1,    127.605,  -32.0,    1.0634, 2,    127.618,  148.0,    1.0635, 0, 0, 0, 0
"BUSLVMAI69", 0.20785, 1,     127.21,   87.4,    1.0601, 2,    127.223,  -92.6,    1.0602, 0, 0, 0, 0
"BUSLVMAI70", 0.20785, 1,    126.743,   87.2,    1.0562, 2,    126.771,  -92.8,    1.0564, 0, 0, 0, 0
"BUSLVMAI71", 0.20785, 1,    127.275,  -32.1,    1.0606, 2,    127.289,  147.9,    1.0607, 0, 0, 0, 0
"BUSLVMAI72", 0.20785, 1,    127.957,  -31.8,    1.0663, 2,     127.97,  148.2,    1.0664, 0, 0, 0, 0
"BUSLVMAI73", 0.20785, 1,    127.808,  -31.9,    1.0651, 2,    127.821,  148.1,    1.0652, 0, 0, 0, 0
"BUSLVMAI74", 0.20785, 1,    128.064,  -31.7,    1.0672, 2,     128.08,  148.3,    1.0673, 0, 0, 0, 0
"BUSLVMAI75", 0.20785, 1,    127.118, -151.9,    1.0593, 2,    127.132,   28.1,    1.0594, 0, 0, 0, 0
"BUSLVMAI76", 0.20785, 1,    127.206,   87.4,      1.06, 2,    127.219,  -92.6,    1.0602, 0, 0, 0, 0
"BUSLVMAI77", 0.20785, 1,    127.659,  -31.9,    1.0638, 2,    127.673,  148.1,    1.0639, 0, 0, 0, 0
"BUSLVMAI78", 0.20785, 1,    127.932,  -31.8,    1.0661, 2,    127.945,  148.2,    1.0662, 0, 0, 0, 0
"BUSLVMAI79", 0.20785, 1,    127.112,   87.5,    1.0593, 2,    127.126,  -92.5,    1.0594, 0, 0, 0, 0
"BUSLVMAI80", 0.20785, 1,    126.069,   86.9,    1.0506, 2,    126.099,  -93.1,    1.0508, 0, 0, 0, 0
"BUSLVMAI81", 0.20785, 1,    127.205,   87.4,      1.06, 2,    127.219,  -92.6,    1.0602, 0, 0, 0, 0
"BUSLVMAI82", 0.20785, 1,    126.915,   87.3,    1.0576, 2,    126.931,  -92.7,    1.0578, 0, 0, 0, 0
"BUSLVMAI83", 0.20785, 1,    127.614,  -31.9,    1.0634, 2,    127.639,  148.0,    1.0637, 0, 0, 0, 0
"BUSLVMAI84", 0.20785, 1,    126.794,   87.3,    1.0566, 2,    126.808,  -92.7,    1.0567, 0, 0, 0, 0
"BUSLVMAI85", 0.20785, 1,     127.44, -151.8,     1.062, 2,    127.465,   28.2,    1.0622, 0, 0, 0, 0
"BUSLVMAI86", 0.20785, 1,    127.768,  -31.9,    1.0647, 2,    127.812,  148.1,    1.0651, 0, 0, 0, 0
"BUSLVMAI87", 0.20785, 1,    128.051,  -31.7,    1.0671, 2,    128.095,  148.3,    1.0675, 0, 0, 0, 0
"BUSLVMAI88", 0.20785, 1,    127.253,   87.4,    1.0604, 2,    127.266,  -92.6,    1.0606, 0, 0, 0, 0
"BUSLVMAI89", 0.20785, 1,    127.206,   87.4,      1.06, 2,    127.219,  -92.6,    1.0602, 0, 0, 0, 0
"BUSLVMAI90", 0.20785, 1,    126.812,   87.3,    1.0568, 2,    126.828,  -92.7,    1.0569, 0, 0, 0, 0
"BUSLVMAI91", 0.20785, 1,    127.216,   87.4,    1.0601, 2,    127.231,  -92.6,    1.0603, 0, 0, 0, 0
"BUSLVMAI92", 0.20785, 1,    127.729,  -31.9,    1.0644, 2,    127.748,  148.1,    1.0646, 0, 0, 0, 0
"BUSLVMAI93", 0.20785, 1,    126.983,   87.4,    1.0582, 2,    126.999,  -92.6,    1.0583, 0, 0, 0, 0
"BUSLVMAI94", 0.20785, 1,    126.823,   87.3,    1.0569, 2,    126.837,  -92.7,     1.057, 0, 0, 0, 0
"BUSLVMAI95", 0.20785, 1,    127.105,   87.5,    1.0592, 2,    127.121,  -92.5,    1.0593, 0, 0, 0, 0
"BUSLVMAI96", 0.20785, 1,    127.218,   87.4,    1.0601, 2,    127.232,  -92.6,    1.0603, 0, 0, 0, 0
"BUSLVMAI97", 0.20785, 1,    127.539, -151.7,    1.0628, 2,    127.555,   28.3,     1.063, 0, 0, 0, 0
"BUSLVMAI98", 0.20785, 1,    127.539, -151.7,    1.0628, 2,    127.555,   28.3,     1.063, 0, 0, 0, 0
"BUSLVMAI99", 0.20785, 1,    127.225,   87.4,    1.0602, 2,    127.239,  -92.6,    1.0603, 0, 0, 0, 0
"BUSLVMAI100", 0.20785, 1,     127.14,   87.4,    1.0595, 2,    127.154,  -92.6,    1.0596, 0, 0, 0, 0
"BUSLVMAI101", 0.20785, 1,    127.103,   87.5,    1.0592, 2,    127.119,  -92.5,    1.0593, 0, 0, 0, 0
"BUSLVMAI102", 0.20785, 1,    127.203,   87.4,      1.06, 2,    127.219,  -92.6,    1.0602, 0, 0, 0, 0
"BUSLVMAI103", 0.20785, 1,    127.065,   87.4,    1.0589, 2,     127.08,  -92.6,     1.059, 0, 0, 0, 0
"BUSLVMAI104", 0.20785, 1,    127.003,   87.4,    1.0584, 2,    127.017,  -92.6,    1.0585, 0, 0, 0, 0
"BUSLVMAI105", 0.20785, 1,    126.888,   87.3,    1.0574, 2,    126.902,  -92.7,    1.0575, 0, 0, 0, 0
"BUSLVMAI106", 0.20785, 1,    128.018,  -31.8,    1.0668, 2,    128.031,  148.2,    1.0669, 0, 0, 0, 0
"BUSLVMAI107", 0.20785, 1,    127.209,   87.4,    1.0601, 2,    127.223,  -92.6,    1.0602, 0, 0, 0, 0
"BUSLVMAI108", 0.20785, 1,    127.118,   87.5,    1.0593, 2,    127.132,  -92.5,    1.0594, 0, 0, 0, 0
"BUSLVMAI109", 0.20785, 1,      127.4,  -32.0,    1.0617, 2,    127.473,  148.0,    1.0623, 0, 0, 0, 0
"BUSLVMAI110", 0.20785, 1,    127.616,  -31.9,    1.0635, 2,    127.636,  148.1,    1.0636, 0, 0, 0, 0
"BUSLVMAI111", 0.20785, 1,    127.764,  -31.9,    1.0647, 2,     127.78,  148.1,    1.0648, 0, 0, 0, 0
"BUSLVMAI112", 0.20785, 1,    127.916,  -31.8,     1.066, 2,    127.932,  148.2,    1.0661, 0, 0, 0, 0
"BUSLVMAI113", 0.20785, 1,    127.487, -151.7,    1.0624, 2,    127.502,   28.3,    1.0625, 0, 0, 0, 0
"BUSLVMAI114", 0.20785, 1,    126.695,  -32.3,    1.0558, 2,     126.71,  147.7,    1.0559, 0, 0, 0, 0
"BUSLVMAI115", 0.20785, 1,    127.765,  -31.9,    1.0647, 2,    127.778,  148.1,    1.0648, 0, 0, 0, 0
"BUSLVMAI116", 0.20785, 1,    127.062,   87.5,    1.0588, 2,    127.075,  -92.5,     1.059, 0, 0, 0, 0
"BUSLVMAI117", 0.20785, 1,    127.348,  -32.1,    1.0612, 2,    127.374,  147.9,    1.0614, 0, 0, 0, 0
"BUSLVMAI118", 0.20785, 1,    127.417,  -32.0,    1.0618, 2,    127.433,  148.0,    1.0619, 0, 0, 0, 0
"BUSLVMAI119", 0.20785, 1,    126.783,   87.3,    1.0565, 2,    126.796,  -92.7,    1.0566, 0, 0, 0, 0
"BUSLVMAI120", 0.20785, 1,    127.764,  -31.9,    1.0647, 2,    127.778,  148.1,    1.0648, 0, 0, 0, 0
"BUSLVMAI121", 0.20785, 1,    127.581, -151.7,    1.0632, 2,    127.597,   28.3,    1.0633, 0, 0, 0, 0
"BUSLVMAI122", 0.20785, 1,    127.049,   87.5,    1.0587, 2,    127.065,  -92.5,    1.0589, 0, 0, 0, 0
"BUSLVMAI123", 0.20785, 1,    127.575, -151.7,    1.0631, 2,    127.589,   28.2,    1.0632, 0, 0, 0, 0
"BUSLVMAI124", 0.20785, 1,     126.35,   87.1,    1.0529, 2,      126.4,  -92.9,    1.0533, 0, 0, 0, 0
"BUSLVMAI125", 0.20785, 1,    126.565,   87.3,    1.0547, 2,    126.584,  -92.7,    1.0549, 0, 0, 0, 0
"BUSLVMAI126", 0.20785, 1,    127.585, -151.7,    1.0632, 2,    127.599,   28.3,    1.0633, 0, 0, 0, 0
"BUSLVMAI127", 0.20785, 1,     127.05,   87.5,    1.0588, 2,    127.064,  -92.5,    1.0589, 0, 0, 0, 0
"BUSLVMAI128", 0.20785, 1,    126.675, -152.1,    1.0556, 2,    126.695,   27.9,    1.0558, 0, 0, 0, 0
"BUSLVMAI129", 0.20785, 1,    127.764,  -31.9,    1.0647, 2,    127.777,  148.1,    1.0648, 0, 0, 0, 0
"BUSLVMAI130", 0.20785, 1,    127.951,  -31.8,    1.0663, 2,    127.967,  148.2,    1.0664, 0, 0, 0, 0
"BUSLVMAI131", 0.20785, 1,     126.74,  -32.2,    1.0562, 2,    126.793,  147.8,    1.0566, 0, 0, 0, 0
"BUSLVMAI132", 0.20785, 1,    127.761,  -31.9,    1.0647, 2,    127.774,  148.1,    1.0648, 0, 0, 0, 0
"BUSLVMAI133", 0.20785, 1,    127.071,   87.5,    1.0589, 2,    127.089,  -92.5,    1.0591, 0, 0, 0, 0
"BUSLVMAI134", 0.20785, 1,    126.774,   87.3,    1.0565, 2,    126.791,  -92.7,    1.0566, 0, 0, 0, 0
"BUSLVMAI135", 0.20785, 1,    127.006,   87.4,    1.0584, 2,    127.022,  -92.6,    1.0585, 0, 0, 0, 0
"BUSLVMAI136", 0.20785, 1,    127.221,  -32.1,    1.0602, 2,    127.257,  147.9,    1.0605, 0, 0, 0, 0
"BUSLVMAI137", 0.20785, 1,    127.274, -151.9,    1.0606, 2,    127.287,   28.1,    1.0607, 0, 0, 0, 0
"BUSLVMAI138", 0.20785, 1,    127.346, -151.8,    1.0612, 2,    127.371,   28.2,    1.0614, 0, 0, 0, 0
"BUSLVMAI139", 0.20785, 1,    126.842, -152.0,     1.057, 2,    126.859,   28.0,    1.0572, 0, 0, 0, 0
"BUSLVMAI140", 0.20785, 1,    127.336,  -32.0,    1.0611, 2,    127.353,  148.0,    1.0613, 0, 0, 0, 0
"BUSLVMAI141", 0.20785, 1,    127.585, -151.7,    1.0632, 2,    127.599,   28.3,    1.0633, 0, 0, 0, 0
"BUSLVMAI142", 0.20785, 1,    127.123, -151.9,    1.0594, 2,    127.137,   28.1,    1.0595, 0, 0, 0, 0
"BUSLVMAI143", 0.20785, 1,    127.468, -151.8,    1.0622, 2,    127.484,   28.2,    1.0624, 0, 0, 0, 0
"BUSLVMAI144", 0.20785, 1,    127.052,   87.5,    1.0588, 2,    127.067,  -92.5,    1.0589, 0, 0, 0, 0
"BUSLVMAI145", 0.20785, 1,    127.905,  -31.8,    1.0659, 2,     127.92,  148.2,     1.066, 0, 0, 0, 0
"BUSLVMAI146", 0.20785, 1,    127.565, -151.8,     1.063, 2,    127.579,   28.2,    1.0632, 0, 0, 0, 0
"BUSLVMAI147", 0.20785, 1,    127.014,  -32.2,    1.0585, 2,    127.031,  147.8,    1.0586, 0, 0, 0, 0
"BUSLVMAI148", 0.20785, 1,    126.997,   87.5,    1.0583, 2,    127.012,  -92.5,    1.0584, 0, 0, 0, 0
"BUSLVMAI149", 0.20785, 1,    127.195, -151.9,      1.06, 2,    127.208,   28.1,    1.0601, 0, 0, 0, 0
"BUSLVMAI150", 0.20785, 1,    127.113,  -32.2,    1.0593, 2,    127.142,  147.8,    1.0595, 0, 0, 0, 0
"BUSLVMAI151", 0.20785, 1,    126.967, -152.0,    1.0581, 2,     126.98,   28.0,    1.0582, 0, 0, 0, 0
"BUSLVMAI152", 0.20785, 1,    127.753,  -31.9,    1.0646, 2,    127.769,  148.1,    1.0647, 0, 0, 0, 0
"BUSLVMAI153", 0.20785, 1,    126.077,   87.1,    1.0506, 2,    126.093,  -92.9,    1.0508, 0, 0, 0, 0
"BUSLVMAI154", 0.20785, 1,    127.064,   87.5,    1.0589, 2,     127.08,  -92.5,     1.059, 0, 0, 0, 0
"BUSLVMAI155", 0.20785, 1,    127.307,  -32.1,    1.0609, 2,    127.321,  147.9,     1.061, 0, 0, 0, 0
"BUSLVMAI156", 0.20785, 1,    127.765,  -31.9,    1.0647, 2,    127.779,  148.1,    1.0648, 0, 0, 0, 0
"BUSLVMAI157", 0.20785, 1,    127.012,  -32.1,    1.0584, 2,    127.028,  147.9,    1.0586, 0, 0, 0, 0
"BUSLVMAI158", 0.20785, 1,    127.525, -151.8,    1.0627, 2,    127.538,   28.2,    1.0628, 0, 0, 0, 0
"BUSLVMAI159", 0.20785, 1,    127.507, -151.7,    1.0626, 2,     127.52,   28.3,    1.0627, 0, 0, 0, 0
"BUSLVMAI160", 0.20785, 1,     127.59,  -31.9,    1.0633, 2,    127.609,  148.1,    1.0634, 0, 0, 0, 0
"BUSLVMAI161", 0.20785, 1,    127.402,  -32.0,    1.0617, 2,    127.432,  148.0,    1.0619, 0, 0, 0, 0
"BUSLVMAI162", 0.20785, 1,    127.586,  -31.9,    1.0632, 2,    127.602,  148.1,    1.0634, 0, 0, 0, 0
"BUSLVMAI163", 0.20785, 1,    127.753,  -31.9,    1.0646, 2,    127.769,  148.1,    1.0647, 0, 0, 0, 0
"BUSLVMAI164", 0.20785, 1,    127.989,  -31.8,    1.0666, 2,    128.002,  148.2,    1.0667, 0, 0, 0, 0
"BUSLVMAI165", 0.20785, 1,    127.093,  -32.1,    1.0591, 2,    127.154,  147.9,    1.0596, 0, 0, 0, 0
"BUSLVMAI166", 0.20785, 1,    127.464,  -32.0,    1.0622, 2,    127.495,  148.0,    1.0625, 0, 0, 0, 0
"BUSLVMAI167", 0.20785, 1,    126.698,   87.3,    1.0558, 2,    126.726,  -92.7,    1.0561, 0, 0, 0, 0
"BUSLVMAI168", 0.20785, 1,    126.877,   87.4,    1.0573, 2,    126.891,  -92.6,    1.0574, 0, 0, 0, 0
"BUSLVMAI169", 0.20785, 1,    126.051,  -32.2,    1.0504, 2,    126.069,  147.8,    1.0506, 0, 0, 0, 0
"BUSLVMAI170", 0.20785, 1,    127.752,  -31.9,    1.0646, 2,    127.766,  148.1,    1.0647, 0, 0, 0, 0
"BUSLVMAI171", 0.20785, 1,    127.167,  -32.0,    1.0597, 2,    127.292,  148.0,    1.0608, 0, 0, 0, 0
"BUSLVMAI172", 0.20785, 1,    126.667,   87.3,    1.0556, 2,    126.681,  -92.7,    1.0557, 0, 0, 0, 0
"BUSLVMAI173", 0.20785, 1,    127.047,   87.5,    1.0587, 2,    127.063,  -92.5,    1.0589, 0, 0, 0, 0
"BUSLVMAI174", 0.20785, 1,    127.444,  -32.0,     1.062, 2,    127.471,  148.0,    1.0623, 0, 0, 0, 0
"BUSLVMAI175", 0.20785, 1,    127.036,  -32.2,    1.0586, 2,     127.05,  147.8,    1.0588, 0, 0, 0, 0
"BUSLVMAI176", 0.20785, 1,    126.931,   87.4,    1.0578, 2,    126.944,  -92.6,    1.0579, 0, 0, 0, 0
"BUSLVMAI177", 0.20785, 1,    126.978,   87.4,    1.0582, 2,    126.991,  -92.6,    1.0583, 0, 0, 0, 0
"BUSLVMAI178", 0.20785, 1,    127.496, -151.8,    1.0625, 2,    127.509,   28.2,    1.0626, 0, 0, 0, 0
"BUSLVMAI179", 0.20785, 1,    127.304, -151.9,    1.0609, 2,    127.317,   28.1,     1.061, 0, 0, 0, 0
"BUSLVMAI180", 0.20785, 1,    127.765,  -31.9,    1.0647, 2,    127.778,  148.1,    1.0648, 0, 0, 0, 0
"BUSLVMAI181", 0.20785, 1,     127.75,  -31.9,    1.0646, 2,    127.764,  148.1,    1.0647, 0, 0, 0, 0
"BUSLVMAI182", 0.20785, 1,    126.983,  -32.2,    1.0582, 2,     127.08,  147.8,     1.059, 0, 0, 0, 0
"BUSLVMAI183", 0.20785, 1,    126.945,   87.4,    1.0579, 2,    126.959,  -92.6,     1.058, 0, 0, 0, 0
"BUSLVMAI184", 0.20785, 1,    127.955,  -31.8,    1.0663, 2,    127.968,  148.2,    1.0664, 0, 0, 0, 0
"BUSLVMAI185", 0.20785, 1,     127.05, -151.9,    1.0588, 2,    127.063,   28.1,    1.0589, 0, 0, 0, 0
"BUSLVMAI186", 0.20785, 1,    127.068,   87.5,    1.0589, 2,    127.083,  -92.5,     1.059, 0, 0, 0, 0
"BUSLVMAI187", 0.20785, 1,    126.892,   87.4,    1.0574, 2,    126.905,  -92.6,    1.0575, 0, 0, 0, 0
"BUSLVMAI188", 0.20785, 1,    127.523, -151.7,    1.0627, 2,    127.538,   28.3,    1.0628, 0, 0, 0, 0
"BUSLVMAI189", 0.20785, 1,     127.76,  -31.9,    1.0647, 2,    127.776,  148.1,    1.0648, 0, 0, 0, 0
"BUSLVMAI190", 0.20785, 1,    127.512, -151.7,    1.0626, 2,    127.528,   28.3,    1.0627, 0, 0, 0, 0
"BUSLVMAI191", 0.20785, 1,    127.064,   87.5,    1.0589, 2,     127.08,  -92.5,     1.059, 0, 0, 0, 0
"BUSLVMAI192", 0.20785, 1,    127.744,  -31.9,    1.0645, 2,     127.76,  148.1,    1.0647, 0, 0, 0, 0
"BUSLVMAI193", 0.20785, 1,    127.754,  -31.9,    1.0646, 2,     127.77,  148.1,    1.0648, 0, 0, 0, 0
"BUSLVMAI194", 0.20785, 1,    126.976,   87.4,    1.0581, 2,    126.992,  -92.6,    1.0583, 0, 0, 0, 0
"BUSLVMAI195", 0.20785, 1,    127.067,   87.5,    1.0589, 2,    127.082,  -92.5,     1.059, 0, 0, 0, 0
"BUSLVMAI196", 0.20785, 1,    127.484, -151.7,    1.0624, 2,      127.5,   28.3,    1.0625, 0, 0, 0, 0
"BUSLVMAI197", 0.20785, 1,    127.323, -151.8,     1.061, 2,    127.337,   28.2,    1.0611, 0, 0, 0, 0
"BUSLVMAI198", 0.20785, 1,    127.484, -151.7,    1.0624, 2,      127.5,   28.3,    1.0625, 0, 0, 0, 0
"BUSLVMAI199", 0.20785, 1,    127.485, -151.7,    1.0624, 2,    127.501,   28.3,    1.0625, 0, 0, 0, 0
"BUSLVMAI200", 0.20785, 1,    127.744,  -31.9,    1.0645, 2,     127.76,  148.1,    1.0647, 0, 0, 0, 0
...
